<?xml version="1.0" encoding="UTF-8"?>

<!-- generated on 2021-09-27 11:36:42 by Eclipse SUMO GUI Version 1.10.0
-->

<configuration xmlns:xsi="http://www.w3.org/2001/XMLSchema-instance" xsi:noNamespaceSchemaLocation="http://sumo.dlr.de/xsd/sumoConfiguration.xsd">

    <input>
        <net-file value="D:\test5\test.net.xml"/>
        <route-files value="D:\test5\test.rou.xml"/>
    </input>

</configuration>
